Result_files/nrci_bus_voltage_730_bus.csv
Bus_Number,Real,Imaginary,Magnitude,Angle
1,1,0,1,0
2,0.998590562691565,1.83085020432543e-05,0.998590562859402,0.00105048048255147
3,0.991944755157595,0.000108745637812445,0.991944761118418,0.0062812631749441
4,0.988476388311184,0.000157408841070894,0.988476400844384,0.0091240036502857
5,0.984968430644033,0.000205117832161944,0.984968452001735,0.011931738673267
6,0.976579619967264,-0.0017379868057739,0.976581166485174,-0.10196731700595
7,0.974687298233446,-0.00365080840332675,0.974694135480261,-0.214607223758659
8,0.972176466784107,-0.00321386074330154,0.972181779025768,-0.189410042344049
9,0.968847366843663,-0.0036298481442477,0.968854166548016,-0.214661269636082
10,0.965801730663985,-0.00398894677171957,0.965809968187271,-0.236641235884563
11,0.965365794621977,-0.00390931558456194,0.96537371011151,-0.232021955459818
12,0.964606828568691,-0.00377141414467743,0.964614201267013,-0.224013562655982
13,0.961461617805714,-0.00429910210135792,0.96147122931082,-0.256191989309563
14,0.960273189105023,-0.00483309379413017,0.960285351606258,-0.288369540398192
15,0.959443786366451,-0.00502356079799196,0.959456937731071,-0.299992772618805
16,0.958683370795951,-0.005120655674349,0.958697046284812,-0.306033438478303
17,0.957559931225424,-0.00562539871732533,0.957576454910608,-0.336592923571592
18,0.957267792853218,-0.00567539250776317,0.957284616670605,-0.339687838980332
19,0.998320761039202,-5.66305700515732e-05,0.99832076264541,-0.00325015043112722
20,0.996494786113606,-0.000509006836102581,0.996494916113254,-0.0292665263501287
21,0.996129286038778,-0.000652392706331381,0.996129499673797,-0.0375245902689714
22,0.995798693453973,-0.000805988812167687,0.995799019633282,-0.0463745810184874
23,0.99017491297943,-9.78539472233473e-05,0.990174917814634,-0.00566225026795653
24,0.986850806193635,-0.000721142035341116,0.986851069681166,-0.0418689303799235
25,0.985195777080731,-0.00101874932868142,0.98519630380341,-0.0592471237378364
26,0.975771885318619,-0.0017292475227247,0.975773417589989,-0.101538569160697
27,0.974720984241728,-0.00171862258651386,0.974722499373416,-0.10102349321751
28,0.970544600415048,-0.00274944274103723,0.97054849483691,-0.162312008741669
29,0.967645786957901,-0.00345061574427721,0.967651939369932,-0.204315342981808
30,0.966270547221524,-0.00344108006972657,0.966276674384635,-0.204040713098963
31,0.964111053300013,-0.00411109309683721,0.964119818374102,-0.244315066404322
32,0.963662019508789,-0.00429821426189629,0.96367160510705,-0.255554228112285
33,0.963525138769429,-0.00437694160815399,0.96353508013901,-0.260271939215076
34,0.998579854358184,8.60122726627589e-06,0.998579854395227,0.000493514883989937
35,0.991337776638827,0.0014632369249252,0.991338856523597,0.0845698018554384
36,0.985296607839967,0.00268149017484417,0.985300256678391,0.155930396280719
37,0.980444419973771,0.00364473972322793,0.980451194494328,0.212992432169391
38,0.976767058495397,0.00435420690583322,0.976776763482593,0.255409950777412
39,0.97431426538815,0.00482709670000484,0.974326222885026,0.283861188521515
40,0.973093061958009,0.00506319016664995,0.973106234244482,0.298118259014102
41,0.990422167393012,0.00174239078559454,0.990423700034041,0.100796951616572
42,0.984384929954259,0.00295958585833221,0.984389378990603,0.172261137588004
43,0.979532371315049,0.00392250097140213,0.979540225038234,0.229437592963887
44,0.975832291785075,0.00463551612889183,0.975843301816584,0.272171268100181
45,0.973373282339259,0.00510926039905911,0.973386691563906,0.300744199696379
46,0.97217358625771,0.0053417646476254,0.972188261740866,0.314817738026125
47,0.990426126061456,0.00174172501237693,0.990427657525335,0.100758034127076
48,0.984402502941568,0.00298805857001521,0.98440703791249,0.173915261986664
49,0.979572471230515,0.00394749970517354,0.979580425052778,0.230890368064854
50,0.97583785786925,0.00463459713893404,0.97584886347297,0.272115758915881
51,0.973380413146163,0.00510808672200747,0.973393816112756,0.300672912666393
52,0.972153718610754,0.00534502968385606,0.972168412339672,0.315016597221509
53,0.991935631558532,0.000101058455698155,0.991935636706453,0.00583729709001701
54,0.986005190635546,0.00151759655012179,0.986006358528954,0.0881859542832145
55,0.981209214459809,0.00266151366000454,0.981212824108918,0.155413466970569
56,0.977604239202845,0.00348959624151203,0.977610467307558,0.204518638166816
57,0.975171936108513,0.00404331174304492,0.975180318373724,0.237561564292942
58,0.973923097017227,0.00432213576108668,0.973932687489831,0.254269061535569
59,0.985160460447641,0.00181686917325602,0.98516213581471,0.105666865159382
60,0.980320505900172,0.00299941178371027,0.980325094425017,0.175302973812615
61,0.976703036315125,0.00379774499416772,0.976710419732597,0.222783850503666
62,0.974257253353319,0.00435356730857902,0.974266980483205,0.256030295341827
63,0.972978519140005,0.00463721743825833,0.972989569570736,0.273069724540496
64,0.985131586799899,0.00182169233307675,0.985133271123173,0.105950478784049
65,0.980298657573971,0.00300305844239518,0.980303257365464,0.175520016082946
66,0.976728056611194,0.0037935908317715,0.97673542369614,0.222534460268211
67,0.974292559012994,0.00434772650280168,0.974302259708881,0.255677540882143
68,0.972972724553794,0.00463820601963285,0.972983779762394,0.273129564404692
69,0.988469141261901,0.000151417369749534,0.988469152859238,0.0087767799738154
70,0.983805591907975,0.0013113990588874,0.983806465945865,0.0763744254423234
71,0.980287785694012,0.00217738694151588,0.98029020386555,0.127263522786934
72,0.977964380482899,0.00276647774866764,0.977968293398326,0.162078578196736
73,0.976814703765414,0.00306019143515951,0.976819497278762,0.179497175304792
74,0.98295436746038,0.00164379241369387,0.982955741914627,0.0958155159812676
75,0.979405984520052,0.00248320269000482,0.979409132492285,0.145268388384749
76,0.977046332936534,0.00307814696056016,0.977051181716413,0.180507556419436
77,0.975932070028097,0.00336579288089415,0.97593787398125,0.197600804539403
78,0.982924361128178,0.00161735178277294,0.982925691762112,0.0942771907720397
79,0.979358862309744,0.00249109153073863,0.979362030467615,0.145736898672523
80,0.977106736613471,0.00309974396235826,0.977111653368262,0.1817627943506
81,0.975958729751256,0.00339312536396751,0.97596462818968,0.199200000445934
82,0.9849611772187,0.000199006362885656,0.984961197322808,0.0115763187404399
83,0.980246361296783,0.00132517317046689,0.980247257032385,0.077456837929377
84,0.976699526120906,0.00217513719319416,0.976701948163621,0.12759909436355
85,0.97431219874328,0.00274977388018836,0.974316079040245,0.161703835636505
86,0.973095160764383,0.00304858772013354,0.973099936178268,0.179500058600538
87,0.979360897171424,0.00163236037697844,0.979362257547644,0.0954982722981122
88,0.975813044733379,0.00248224760518976,0.975816201866417,0.145747185374584
89,0.973429753271554,0.00305610433125886,0.973434550613446,0.179880781376005
90,0.972207594850085,0.00335561552150086,0.972213385857094,0.197758014430745
91,0.97936201611568,0.00163223525623905,0.979363376281808,0.0954908432501119
92,0.975829216079713,0.00247957199971107,0.9758323663581,0.145587673006864
93,0.973421189730288,0.00305746914103002,0.973425991400208,0.179962696045445
94,0.972140329606405,0.00339870519490737,0.972146270704286,0.200311276230169
95,0.976572148013783,-0.00174424542095626,0.9765737057019,-0.102335290831406
96,0.971730487515588,-0.000572922014559174,0.971730656409953,-0.033780981498983
97,0.968114185030468,0.000334491085473654,0.96811424281512,0.0197961428683932
98,0.96568971587152,0.000919904008015852,0.965690154015977,0.0545792301686871
99,0.964479325217929,0.00118198916662773,0.964480049493624,0.0702171161194005
100,0.970781213129044,-0.000283493905889472,0.970781254522919,-0.0167318893729505
101,0.967192514186525,0.000682802889413635,0.967192755203551,0.0404487387254234
102,0.96480865191403,0.00126125142103271,0.964809476302609,0.0749001804887663
103,0.963568012500136,0.00149629331416405,0.963569174271959,0.0889726742611257
104,0.970818906198298,-0.000258082729796596,0.970818940502685,-0.0152315233457156
105,0.967236276366011,0.000675328326899718,0.967236512124483,0.0400041412578282
106,0.964736868644585,0.00127329747559225,0.96473770891814,0.0756211682434731
107,0.963552733928299,0.00146674296793051,0.963553850283228,0.0872169356421851
108,0.974676247421076,-0.00366046052852426,0.974683120946552,-0.215177043553929
109,0.967352851481923,-0.00204828789689592,0.967355020017737,-0.121318788848005
110,0.961240261842026,-0.000701709376506067,0.961240517967369,-0.0418261491665827
111,0.956359816247805,0.000398757255547672,0.956359899379352,0.023889655421482
112,0.952734612754346,0.00125216914895114,0.952735435610406,0.0753032011242335
113,0.950339053075915,0.00181953185225358,0.95034079492432,0.109699131168148
114,0.949129841994434,0.00208324638749951,0.949132128251852,0.125758382816664
115,0.966438558015636,-0.00173078662876604,0.966440107839951,-0.102610416590628
116,0.960294989858788,-0.000411464664011843,0.960295078010431,-0.024549942958016
117,0.955414741664778,0.000688485114712755,0.955414989730708,0.0412881262788215
118,0.951819770359729,0.00160144639848372,0.951821117583663,0.096400638045903
119,0.949454196267431,0.00216371936607269,0.949456661723603,0.130571620623373
120,0.948181173131846,0.00237279457758746,0.948184142050367,0.143380648139178
121,0.966429152403246,-0.00176121654244188,0.966430757218832,-0.104415479114933
122,0.960311316108298,-0.000414247163697927,0.960311405454691,-0.0247155399346732
123,0.955394956031712,0.000691866090915202,0.955395206545189,0.041491740999778
124,0.951785457928305,0.00154221676938199,0.951786707385828,0.0928386054986549
125,0.949429934574686,0.00213512590238982,0.949432335361037,0.128849420325258
126,0.948242697077389,0.00239509904560363,0.948245721878058,0.144719042309581
127,0.974676282434854,-0.00366078383519107,0.974683157174328,-0.215196040950759
128,0.967230608306467,-0.00216117366081921,0.967233022759506,-0.128021096963959
129,0.960991490035582,-0.00092707343543346,0.960991937211735,-0.0552735161776156
130,0.955983007014145,6.07015905113235e-05,0.955983008941315,0.00363808238832493
131,0.952227717708569,0.000801043509625348,0.95222805463984,0.0481989765975615
132,0.949715082671763,0.00129496258450485,0.949715965529868,0.0781243196948715
133,0.948471448464853,0.0015410523198507,0.948472700395361,0.0930926454161471
134,0.966317370065659,-0.00184365625319842,0.966319128838393,-0.109315631985139
135,0.960057875011906,-0.0006385836909516,0.960058087389251,-0.0381103534629191
136,0.955026926094604,0.000352698644082214,0.955026991221736,0.0211597623847303
137,0.951287387401621,0.00109014286690917,0.951288012034669,0.0656589783755563
138,0.948752514648461,0.00158756591387943,0.94875384289989,0.0958740454050544
139,0.947525467293612,0.00183080820030177,0.947527236035273,0.110706736710495
140,0.966312440741572,-0.00187492368708349,0.966314259685102,-0.111170129703011
141,0.96005326405755,-0.000637764473702995,0.960053475891359,-0.0380616458059468
142,0.955032393919285,0.000351803679563125,0.955032458715949,0.0211059491518288
143,0.951277559348672,0.00109180192480433,0.951278185890862,0.0657595822305998
144,0.948746474239637,0.00158858229046647,0.948747804200798,0.0959360356675932
145,0.947525366453923,0.00183079247780036,0.947527135165393,0.110705797774149
146,0.972165463312611,-0.00322358011802924,0.972170807793878,-0.189985003316146
147,0.964828795961527,-0.00165128865112651,0.964830209037207,-0.0980606906482284
148,0.958709967632545,-0.000324734306918188,0.958710022629557,-0.0194072296795913
149,0.953778881294192,0.000738244370589994,0.953779167002274,0.044348096887646
150,0.950065518049003,0.0015360512830173,0.950066759780208,0.0926348523081039
151,0.947586200993387,0.00206794853772155,0.947588457466761,0.125038265901811
152,0.94633471532122,0.00231392065574337,0.946337544246711,0.140095910402416
153,0.963905372471741,-0.00136432458656456,0.963906338012913,-0.0810971602885313
154,0.957834577290898,-1.40633979788115e-05,0.957834577394141,-0.000841244791997201
155,0.952867593633707,0.00105478039160672,0.952868177430103,0.0634237542252704
156,0.949137365139511,0.00185524217581402,0.949139178322918,0.111993706260254
157,0.946689653532158,0.00241437624803315,0.946692732261901,0.146123144725467
158,0.945380932472112,0.00260445915501459,0.945384520017823,0.157845514810325
159,0.963900155132632,-0.00136339796413861,0.963901119367916,-0.0810425194247286
160,0.957782859410773,-3.76271921205304e-05,0.957782860149878,-0.00225090612255422
161,0.952841368968603,0.0010267228615223,0.952841922134934,0.0617383604899296
162,0.949119641534879,0.00182561121271167,0.949121397295203,0.110207063413908
163,0.946621545894459,0.00236036543029842,0.946624488631358,0.142864587834476
164,0.945384224548265,0.00260394160216317,0.945387810655813,0.157813598680257
165,0.972165457870851,-0.00322358667332286,0.972170802373884,-0.189985390719721
166,0.964824443342023,-0.00165104856849948,0.964825856013208,-0.09804687584386
167,0.958673530363303,-0.000342694484760868,0.958673591614345,-0.0204813694975288
168,0.953771507483614,0.000718418675720029,0.953771778054352,0.0431574543110157
169,0.950061102333401,0.00149549902470973,0.950062279371352,0.0901896850636564
170,0.947584864360563,0.00200664893848499,0.94758698904385,0.121331975216644
171,0.946374410803725,0.00227075368584249,0.946377135050503,0.13747661744354
172,0.963938052316109,-0.00133827314852517,0.963938981304312,-0.0795459353400535
173,0.957720990739972,-5.12073365730187e-05,0.957720992108947,-0.00306348539012086
174,0.95285062407875,0.00103656431560524,0.952851187894964,0.0623295357624392
175,0.949140903321486,0.0018133958546903,0.949142635625674,0.109467205845153
176,0.946627019665215,0.00229802362997581,0.946629808992328,0.139090469464584
177,0.945433662569751,0.00255912037440128,0.945437126104716,0.155089081783201
178,0.963904768422088,-0.0013647268436513,0.963905734533309,-0.0811211217570964
179,0.957726028138672,-5.20639063094253e-05,0.957726029553821,-0.0031147134001919
180,0.952887120659755,0.00103043205003773,0.952887677803343,0.0619584242970343
181,0.949107087348986,0.00178640448157188,0.949108768528164,0.107841694361115
182,0.946616402605679,0.00229976916493859,0.946619196203166,0.139197680708998
183,0.945477477866867,0.00258459095116832,0.945481010525265,0.156625396021542
184,0.968839956683877,-0.00363604595150276,0.968846779680554,-0.215029435566718
185,0.964042056984362,-0.00247166197023751,0.964045225467942,-0.146897625426717
186,0.960482429873316,-0.00157597987736248,0.960483722822997,-0.0940120419975847
187,0.958106930333913,-0.000985689092521293,0.958107437366426,-0.0589452003745684
188,0.956938241755619,-0.000681660999992731,0.956938484541224,-0.0408138059992192
189,0.963107271233479,-0.00218177407769234,0.963109742470152,-0.129794713840235
190,0.959582990731585,-0.00126027665948934,0.959583818328879,-0.0752498666476056
191,0.957149197891293,-0.000692598547940915,0.957149448475365,-0.041459541370627
192,0.956049160658566,-0.000368075720128048,0.956049231512522,-0.0220586818444412
193,0.963096693682225,-0.0021477925196905,0.963099088564797,-0.127774545849806
194,0.959591619158583,-0.00122954726071217,0.95959240688214,-0.0734143866939536
195,0.957236154348566,-0.00064274686146453,0.957236370138305,-0.0384718825708176
196,0.9560608303564,-0.000337677449712039,0.956060889989665,-0.0202366745780279
197,0.965794095741425,-0.003995334021653,0.965802359731505,-0.237022024014979
198,0.960850070402092,-0.00279607336258929,0.960854138679724,-0.166730227344528
199,0.957078960452916,-0.00192329005670156,0.957080892916725,-0.115138101711965
200,0.954550395719353,-0.00132013517162587,0.954551308586838,-0.0792395308164747
201,0.953277324393544,-0.00100773628342311,0.953277857046586,-0.0605689581790025
202,0.959963597111197,-0.00244922572717056,0.959966721550978,-0.146182618977982
203,0.956156372693837,-0.00160275083163831,0.956157715993164,-0.0960415836552398
204,0.953591113351805,-0.0009934689891172,0.953591630858916,-0.0596917890305404
205,0.952320133677939,-0.000681541406874034,0.952320377555294,-0.0410045300205519
206,0.9599670505373,-0.00244982209918108,0.959970176487583,-0.14621768741918
207,0.956114911656069,-0.00162795514219109,0.956116297596185,-0.0975561280439047
208,0.95360628853761,-0.000996065359765557,0.953606808744923,-0.0598468373841066
209,0.952307265298766,-0.000646798380979653,0.952307484948511,-0.0389147632051201
210,0.965360241979904,-0.00391380795691587,0.965368175717546,-0.232289915605245
211,0.961827452505693,-0.00299520377732489,0.961832116140472,-0.178422834618361
212,0.959483703398057,-0.002363352987595,0.959486614040964,-0.141127855909138
213,0.958316792983014,-0.00205804377866165,0.958319002867752,-0.123045992886263
214,0.96093393406428,-0.00267940946611544,0.960937669607837,-0.159759636635135
215,0.958578829704973,-0.00201348347932443,0.958580944351742,-0.120348929317034
216,0.957431382737717,-0.00171162096132657,0.957432912687553,-0.102428805347665
217,0.960920134614982,-0.00267702358663269,0.960923863562436,-0.159619671642766
218,0.958613002015231,-0.00201940122804037,0.958615129034574,-0.120698338239964
219,0.95743867518395,-0.00174519064345423,0.957440265723339,-0.104436921305431
220,0.964599438419465,-0.00377763634529302,0.964606835521864,-0.224384862740097
221,0.959797586716886,-0.00262888537641184,0.959801186968364,-0.156932734893052
222,0.956197291938205,-0.00172686614148326,0.956198851273431,-0.103474497321431
223,0.953793428001646,-0.00113232262932721,0.953794100135699,-0.0680202602825427
224,0.952577087481255,-0.000844406947520187,0.952577461741229,-0.0507895290028782
225,0.958929743172806,-0.00234980522663375,0.958932622203493,-0.14039991317962
226,0.955297374068673,-0.00137778258331903,0.955298367625188,-0.0826350773262561
227,0.952878247465981,-0.000813263331327565,0.952878594518256,-0.0489008384099822
228,0.951601815923719,-0.000482612717254025,0.951601938304223,-0.0290580251156809
229,0.958838806669659,-0.00233415034253675,0.958841647736224,-0.139477770683707
230,0.955288186204767,-0.00140862462656887,0.955289224751191,-0.0844856962445591
231,0.952913281844102,-0.000786787090496267,0.952913606655306,-0.0473071057732095
232,0.951709315421526,-0.000566089275425724,0.951709483780201,-0.0340802826648873
233,0.961454008135775,-0.00430525860850746,0.961463647264957,-0.25656089340798
234,0.956612507663409,-0.00304631669636565,0.95661735812366,-0.182456844714097
235,0.952986722059296,-0.00209770952140686,0.952989030790259,-0.12611897450659
236,0.950558614361403,-0.00145790431125258,0.950559732379639,-0.087876430983184
237,0.949361420355989,-0.00114953948748446,0.949362116318833,-0.069376875250148
238,0.955672370667548,-0.00268907079299927,0.955676153913585,-0.161218431504784
239,0.952068658605123,-0.0017770012843605,0.952070316957589,-0.106940349976962
240,0.949658546409691,-0.0011079358752905,0.949659192705926,-0.0668451003406603
241,0.948475358413766,-0.000802028495996061,0.948475697510395,-0.0484491626582892
242,0.955714130506504,-0.00272873762756348,0.955718026019622,-0.163589424519612
243,0.952094035943771,-0.00174883538197013,0.952095642099517,-0.105242518046167
244,0.949599916900332,-0.00109786278836759,0.949600551537234,-0.066241450859721
245,0.948437414755642,-0.000828223692179904,0.948437776379057,-0.0500335702221005
246,0.960261902946359,-0.00484257536279339,0.960274113358424,-0.288938650353394
247,0.952937161652628,-0.00308186546895911,0.952942145123898,-0.185297914580698
248,0.946815633325326,-0.00163153058019849,0.946817039031972,-0.0987306510132023
249,0.941896345796241,-0.000449697012483852,0.941896453147433,-0.02735517451811
250,0.938185795138766,0.000422073173345552,0.938185890080384,0.0257763547180094
251,0.935715674538689,0.00100283552182768,0.935716211923507,0.0614056411696646
252,0.934511411422905,0.00129116337326088,0.934512303387433,0.0791623986310838
253,0.952025198440953,-0.00276126426127233,0.95202920283301,-0.166180837350604
254,0.945899921794056,-0.0013106642020573,0.945900829839287,-0.0793905119837816
255,0.940985794247309,-0.000130030593373845,0.94098580323148,-0.00791744594448567
256,0.937271557018399,0.000742085812282331,0.937271850791993,0.0453639885660009
257,0.934724283559065,0.00133568632581773,0.934725237881683,0.0818734877007293
258,0.933583970085295,0.00157999105526708,0.933585307067305,0.0969668884720688
259,0.95203003008479,-0.00272956325403629,0.952033943039219,-0.164272156236603
260,0.945907114222055,-0.00134466937620771,0.945908069989693,-0.0814496762323005
261,0.940979175577416,-9.60672430481668e-05,0.940979180481305,-0.0058494892340379
262,0.937220074083423,0.000750797002454944,0.937220374811109,0.0458990278795932
263,0.934787848987961,0.00132497189158842,0.934788787997616,0.0812112038094379
264,0.933614628377796,0.00164117090253384,0.933616070857256,0.100718290460179
265,0.95943645295383,-0.00502968419507513,0.959449636499868,-0.300360733528259
266,0.954692446321194,-0.00387425676402541,0.954700307388774,-0.232511887631031
267,0.951128906153019,-0.0029665363550559,0.951133532401094,-0.178702866318286
268,0.948748153215575,-0.00236810248519655,0.948751108636688,-0.143011604948434
269,0.947583118521901,-0.00208102052307456,0.947585403620227,-0.125829068747467
270,0.953801273022278,-0.00358925420848254,0.953808026368352,-0.215609008753695
271,0.950217806055697,-0.00264585416228966,0.95022148970098,-0.159538038492397
272,0.947814525772637,-0.00204373317961054,0.947816729178652,-0.123544323261163
273,0.946694678932771,-0.00173183456912754,0.946696262996003,-0.104813836124972
274,0.953789900124226,-0.00358727680567135,0.953796646111666,-0.215492795365595
275,0.950252455859625,-0.00261924690416153,0.950256065658932,-0.157927940230023
276,0.947843422691303,-0.00201606681807516,0.947845566780042,-0.121868172452633
277,0.946708049989534,-0.00179953151719668,0.946709760290168,-0.108909432911983
278,0.958675685167784,-0.00512700365876305,0.958689394693838,-0.306415271819906
279,0.953732405491312,-0.00389497564348244,0.953740358860579,-0.233990607551364
280,0.949988951338506,-0.00297395630956475,0.949993606337098,-0.179364810638844
281,0.947450504838328,-0.00236405326503093,0.947453454195108,-0.142962606321106
282,0.946180603345268,-0.00206946875542859,0.946182866494498,-0.125316071824344
283,0.952826118387877,-0.00354212808188522,0.952832702290102,-0.212995897965384
284,0.949087974099548,-0.00265478524930531,0.949091687069855,-0.160267117209845
285,0.946493202433472,-0.002035416276658,0.946495390993632,-0.123213333314723
286,0.945218823202033,-0.00174012206490974,0.945220424959299,-0.105479847707398
287,0.952824958410083,-0.00357447340259388,0.952831663112263,-0.214941136248317
288,0.949068164648338,-0.00261878805878266,0.949071777685893,-0.158097308485185
289,0.946488049265108,-0.00200174217620346,0.946490166020445,-0.121175547287185
290,0.945217228623224,-0.00173984793508821,0.945218829878566,-0.105463408911565
291,0.957552203624541,-0.00563153815506554,0.957568763529912,-0.336962984558818
292,0.952681911881478,-0.00431893249279579,0.952691701655906,-0.259745572493636
293,0.949017984846305,-0.00331865885005308,0.949023787403827,-0.20035908035962
294,0.946575448860566,-0.0026520021122537,0.946579163884767,-0.160524056384206
295,0.945372374636185,-0.0023199864301266,0.945375221307548,-0.140606143886321
296,0.951751648878219,-0.00399377546874558,0.951760028255496,-0.240425257866525
297,0.948108882761058,-0.00296492277668613,0.948113518697784,-0.179174576901304
298,0.945654185775622,-0.00229633627893937,0.945656973873329,-0.139131323582413
299,0.944462476542748,-0.0019664020158694,0.944464523597445,-0.119291529664834
300,0.951788496655883,-0.0039676470496971,0.951796766431562,-0.238843098606863
301,0.948083453719353,-0.00296051652453569,0.948088076011141,-0.178913100997151
302,0.945625181024023,-0.0022913313837184,0.945627957066746,-0.138832344412029
303,0.944466827809221,-0.00196708574602561,0.944468876278274,-0.119332458169182
304,0.957258286187397,-0.00568330755330815,0.957275157130477,-0.340164943197248
305,0.951117857805735,-0.00417848084917628,0.951127036278108,-0.251711998937518
306,0.946201598415379,-0.00296677391837698,0.946206249499178,-0.179647833547492
307,0.942495178394039,-0.00206743355997076,0.942497445926267,-0.125682369664043
308,0.940037922926784,-0.00148289114717082,0.940039092541718,-0.0903828788845343
309,0.938800263138151,-0.00121093345045694,0.938801044113225,-0.0739042586888708
310,0.95016837261251,-0.00384991146974254,0.950176172155159,-0.232150930255692
311,0.945287640980331,-0.00261199863983322,0.945291249682897,-0.15831807249623
312,0.941526798317909,-0.00170341444271473,0.941528339229115,-0.103659664299159
313,0.939094287239493,-0.00112326284780411,0.939094959013878,-0.0685321917569017
314,0.937845591537377,-0.000915478635886153,0.937846038359829,-0.0559292978328934
315,0.950212969213656,-0.00385761500614835,0.9502207996331,-0.232604533656455
316,0.945286487643182,-0.00264450164010391,0.945290186720305,-0.160288324856891
317,0.9415738118867,-0.00174438869027429,0.941575427739463,-0.106147807187475
318,0.939137375406109,-0.00116358480919961,0.939138096242657,-0.0709890440996588
319,0.937876253946436,-0.000887672547686428,0.937876674024443,-0.0542287697030091
320,0.998311647952621,-6.42621855262179e-05,0.998311650020928,-0.00368817895233873
321,0.992407242191991,0.00136482647228743,0.992408180693011,0.0787970341251709
322,0.987698486638139,0.00251839227729356,0.987701697278552,0.146090064836809
323,0.984133332873209,0.00336056429035256,0.984139070591388,0.195649711070123
324,0.981753323022371,0.00390876165361895,0.981761104181222,0.228116734908623
325,0.98055493246531,0.00420334737353624,0.98056394167397,0.245608462309589
326,0.99147352134948,0.00167824081231908,0.991474941705217,0.0969829467438471
327,0.986832704120196,0.0028513388945475,0.986836823418476,0.165549063490083
328,0.983262811368309,0.00366274331672671,0.983269633370478,0.213430997671811
329,0.980883188262783,0.00421070415287584,0.980892226009578,0.245955989153435
330,0.979639636149328,0.00454430978988309,0.979650176066056,0.265779266809601
331,0.991528080617488,0.00166899682500661,0.991529485291991,0.0964434448690881
332,0.986837900437256,0.00285047064034943,0.986842017205532,0.165497781383342
333,0.983210214495459,0.00370295458028768,0.983217187482415,0.215785661029262
334,0.98082888524558,0.00418815333449258,0.980837826942069,0.244652309108909
335,0.979656116458269,0.00451000541422275,0.979666497673027,0.263768526510244
336,0.996485681194979,-0.00051661470663871,0.996485815110971,-0.0297042298062698
337,0.99059351696634,0.000916326033219584,0.990593940779542,0.053000144345238
338,0.98585073563086,0.00207588286880803,0.985852921197474,0.120646206429244
339,0.982287354627108,0.00296053401053436,0.982291816021058,0.172684285816353
340,0.979925978541353,0.00356919466011619,0.979932478577351,0.208688095267974
341,0.978779279225839,0.00388136303613046,0.978786974995516,0.227206030782585
342,0.989694949822684,0.00125578517917249,0.989695746530691,0.0727003327041301
343,0.984932613281293,0.00238700056871475,0.984935505744834,0.138857002681499
344,0.981366843272036,0.00327173771284502,0.981372297011375,0.191015285880801
345,0.978992993268604,0.0038821734384416,0.979000690571578,0.227203860482726
346,0.97790861185036,0.00421555816026475,0.977917698000042,0.246988513887965
347,0.989750706231209,0.00118378749747201,0.989751414163181,0.0685283624211699
348,0.984981110463343,0.00237881264706051,0.984983982975972,0.138373881990156
349,0.981385190169917,0.00326864965823285,0.981390633517272,0.190831428364524
350,0.97901986479482,0.00390938149549279,0.979027670153681,0.228789912981615
351,0.977918890963983,0.00421388725213942,0.977927969816796,0.246888021916992
352,0.996119984364633,-0.00066022992453095,0.996120203165336,-0.0379757290669979
353,0.990073793850765,0.000783957146990701,0.990074104225969,0.0453677561544506
354,0.985227450696653,0.00193138016748248,0.985229343775132,0.112319028871239
355,0.981568083669188,0.00278320185375196,0.981572029496848,0.162459736667667
356,0.979092405976667,0.00337985369146012,0.979098239632854,0.197785808061453
357,0.977856921441725,0.00365795626871111,0.977863763238802,0.214330413419099
358,0.98917845755182,0.00112309643457091,0.989179095123931,0.06505262780982
359,0.984315032292846,0.0022417189283745,0.984317584980285,0.130487503669165
360,0.980705406847695,0.00305346106463018,0.980710160365833,0.178391865042625
361,0.978149300212685,0.00372646768410327,0.978156398572318,0.218279395379008
362,0.976927064438619,0.00397071647744049,0.976935133886586,0.232877203722285
363,0.989153101405666,0.00109605203173231,0.989153708657307,0.0634877753036622
364,0.984343642312009,0.00226842741823695,0.984346256112666,0.13203832638187
365,0.98063322087988,0.00309702492754253,0.980638111362519,0.180950291771379
366,0.978160291304253,0.00372470495717233,0.978167382870355,0.218173692402723
367,0.97691245059664,0.00397310834506954,0.976920529890049,0.233020967728987
368,0.995789493960723,-0.000813760757154379,0.995789826463959,-0.046822191660053
369,0.989801163025143,0.000608239750729795,0.98980134990892,0.0352086535802584
370,0.984979092393579,0.00173538834651621,0.984980621141955,0.100946635271831
371,0.981346714217138,0.00258637929784494,0.981350122465293,0.151005014569601
372,0.978923365816209,0.00314031359280234,0.978928402749863,0.183799983028305
373,0.977715073322854,0.00341700493207267,0.977721044329833,0.200241531944697
374,0.988875963146594,0.000952617208322955,0.988876421990458,0.0551949189571404
375,0.98404031593862,0.00201896231963495,0.984042387095916,0.117553982008864
376,0.980445233990643,0.00292645638735521,0.980449601459429,0.171017305372919
377,0.978016395318053,0.00344955346927008,0.978022478744766,0.202086627948251
378,0.976823667967415,0.0037236111368125,0.976830765066914,0.218408067195581
379,0.98896218475867,0.000906796956512004,0.988962600487683,0.0525355010775966
380,0.984114338385101,0.00206943926463082,0.984116514237016,0.120483927961522
381,0.980417953659809,0.00289944800726212,0.980422241004983,0.169443703886264
382,0.977987593663243,0.00345440911368298,0.977993694407866,0.202377045585955
383,0.976774150730064,0.00373180420560554,0.976781279456699,0.21889972259533
384,0.990165896674053,-0.000105524205359753,0.990165902297029,-0.00610613999230286
385,0.984274991646133,0.00127204477543161,0.984275813620301,0.0740471484350581
386,0.979557999927286,0.00237377307086227,0.979560876117527,0.138845185545141
387,0.975979797585014,0.00320231488862129,0.975985051173803,0.187994126328029
388,0.973597680951705,0.00375429634269275,0.973604919408055,0.220937532537295
389,0.9724353226749,0.00400834265648064,0.972443583760358,0.236169759597164
390,0.983362447747,0.00161467814127253,0.983363773394399,0.0940794107348976
391,0.978688018026465,0.00267750979942578,0.978691680605948,0.156750287677127
392,0.975059120610683,0.00351430421417887,0.97506545371077,0.206504327036622
393,0.972664756021738,0.00406808022430584,0.97267326316885,0.239632892082536
394,0.971559472063533,0.00431267475630118,0.971569043825463,0.254329710256534
395,0.983408456674992,0.00154403994292996,0.983409668815207,0.089959465808306
396,0.978703022254863,0.00267496917506008,0.978706677830948,0.156599151053399
397,0.975087080548631,0.00350959042025355,0.975093396489675,0.206221428413893
398,0.972683845149174,0.00409672501985613,0.97269247235191,0.241315476468572
399,0.971546578285595,0.00428296293090802,0.971556018739998,0.252580900993169
400,0.986839990336226,-0.00073032365308412,0.986840260578905,-0.0424024723063105
401,0.979781359087309,0.000928124534319795,0.979781798682812,0.0542749688793673
402,0.973858692500794,0.00229186901670113,0.97386138932753,0.134839048457386
403,0.969085957143762,0.00336030252166878,0.969091783045485,0.198672139793279
404,0.965513435029835,0.00417093200021719,0.965522444015084,0.247511122092481
405,0.963146198660769,0.00472380726404257,0.963157782686595,0.281008272370309
406,0.961969779116304,0.0049997625542425,0.961982771965626,0.297787643374104
407,0.978912686764957,0.00126461915802418,0.978913503620724,0.0740181439240797
408,0.972985085066199,0.00262900909849298,0.972988636855599,0.154813019625519
409,0.968190968915333,0.00366893871348429,0.968197920572284,0.217120076611565
410,0.964630606977579,0.00447737435213345,0.964640997884198,0.26593890924827
411,0.962273051168546,0.0050284390362808,0.962286189345126,0.299401205903504
412,0.961072964817906,0.00530824200830464,0.961087624068221,0.31645544321677
413,0.978932872887662,0.00122952645681325,0.978933645021663,0.0719626868020538
414,0.972993550470451,0.00259578497814426,0.972997013025603,0.15285524847803
415,0.968158165447267,0.00364246135046148,0.968165017363728,0.215560520172169
416,0.964565598659251,0.00445601233769266,0.964575891344394,0.26468794297706
417,0.962214190749192,0.00503816256932612,0.962227380592133,0.299998499860229
418,0.96108364104422,0.00530648733691626,0.961098290442071,0.316347324967751
419,0.986839913236168,-0.000730715534586596,0.986840183768963,-0.0424252281887872
420,0.979596770911878,0.000840437640763979,0.97959713143537,0.0491564686357384
421,0.973583765976684,0.00215058365221066,0.973586141223974,0.126562470180943
422,0.968718844148849,0.00318545158358641,0.968724081516958,0.188405825747584
423,0.965039051327014,0.00396319985781925,0.965047189281051,0.235299647549177
424,0.9625896268809,0.00448128316602125,0.96260005800827,0.266735429248143
425,0.961355342127535,0.00474085998303858,0.961367031674443,0.282548038672812
426,0.978655337320421,0.00112607415822809,0.978655985169843,0.0659264459623401
427,0.972724314397712,0.00245372406043852,0.972727409186286,0.14452988629872
428,0.967859630475078,0.00348833587204982,0.967865916741834,0.206503144957141
429,0.964093937835056,0.00424810483667127,0.964103297040835,0.252461812372159
430,0.961695438768046,0.00478974002108979,0.961707366383732,0.285360216966925
431,0.960437296811531,0.00505318950544068,0.960450589999724,0.301449934542116
432,0.978669466638431,0.00115531900711245,0.978670148565062,0.0676376188345744
433,0.972704158596937,0.00245709885615175,0.972707261968658,0.144731667508829
434,0.967778592125855,0.00346990572592764,0.967784812663873,0.205429323505483
435,0.964114855267921,0.00427676525280911,0.964124340979581,0.254159543709652
436,0.961637968725206,0.00476708097888649,0.961649784461578,0.284027245433031
437,0.96039798254261,0.00502748549370122,0.960411141377642,0.299928857043227
438,0.986839898419014,-0.000730552375597033,0.986840168831014,-0.0424157558440216
439,0.979659330865214,0.000896233467430837,0.979659740821121,0.0524165689017185
440,0.973662107068544,0.00224517313098428,0.973664695644011,0.132118437955709
441,0.968866789206964,0.00333564204143751,0.968872531211428,0.197258754209395
442,0.965302395111794,0.00416628452706412,0.965311385996937,0.247289386856434
443,0.962924387621264,0.00471996374094451,0.962935955468224,0.280844310774131
444,0.961754828640828,0.00499554893041665,0.961767802498641,0.297603180665823
445,0.978761956096336,0.00120599826250297,0.978762699091734,0.0705979376720228
446,0.97271410179808,0.00253121471228751,0.972717395179487,0.149095805678712
447,0.967944898933299,0.00364883948902764,0.967951776381763,0.215985551229466
448,0.964369312824706,0.00448107021836574,0.964379723712759,0.266230540523107
449,0.96201537920918,0.00503057206035117,0.962028532056215,0.299608433179892
450,0.960889849582626,0.00529883492244351,0.96090445970578,0.315954841337829
451,0.978763301417874,0.00120570797327013,0.978764044054609,0.0705808474322889
452,0.972784809808877,0.0025512304987658,0.972788155238308,0.150263864668751
453,0.967918533141446,0.00362125382293777,0.967925307179195,0.214358528582224
454,0.964437208122595,0.00446985006165263,0.964447566211289,0.265545239999689
455,0.962001048430988,0.00503296375278144,0.962014213983586,0.29975533912889
456,0.960847449692813,0.00530580369616445,0.960862098916408,0.316384321941475
457,0.9868399051004,-0.000730364043227708,0.986840175372994,-0.0424048210132187
458,0.979738788758194,0.000950860143285242,0.979739250174446,0.0556069195557843
459,0.973820232275413,0.00233435171311366,0.97382303011731,0.137343875645738
460,0.969092276723903,0.00344009478208915,0.969098382548453,0.203388355237718
461,0.965559785525032,0.00426817547301638,0.965569219033527,0.253269504051778
462,0.963223308327756,0.00481893750235473,0.963235362652617,0.286644306362161
463,0.962052253763711,0.00509443095087157,0.962065742139563,0.30340001087904
464,0.978857182157243,0.00125789908965825,0.978857990400517,0.0736289936173384
465,0.972924039741811,0.00264342671718704,0.972927630819648,0.155671784716973
466,0.968182098504775,0.00375120616333752,0.968189365471853,0.221990476905022
467,0.964637670861411,0.00458094023060171,0.964648547948072,0.272088242379405
468,0.962340992442223,0.00512503854709924,0.962354639285742,0.305131242299623
469,0.961165005649628,0.00540126464315402,0.961180181727232,0.32197011831787
470,0.978831364399782,0.00129381579826865,0.978832219479957,0.0757333124297306
471,0.972911736133868,0.00264551606287922,0.972915332936149,0.155796796181369
472,0.968190200667838,0.00374986085799905,0.968197462362757,0.221909007637526
473,0.964668737868756,0.004575841679284,0.964679590407288,0.271776662123266
474,0.962339638890325,0.00512522913788236,0.962353286768055,0.305143018537942
475,0.961164806966339,0.00540123291299899,0.961179982868776,0.321968293471797
476,0.985184892995802,-0.00102787845385136,0.985185429206739,-0.0597787037818871
477,0.978127124650629,0.00067455650725241,0.978127357251492,0.0395135088347571
478,0.972219744812576,0.00210074509014912,0.97222201442539,0.123802916796828
479,0.967494052698792,0.00322894590869872,0.967499440877985,0.191220075661633
480,0.963974694574022,0.00407828931050344,0.963983321548034,0.242399901493685
481,0.961615274722475,0.00463158527159575,0.961626428589454,0.275960920622684
482,0.960446996787419,0.00490747002177446,0.960459534233477,0.292754180449015
483,0.977255159556146,0.000980456983567121,0.977255651390672,0.0574834809056396
484,0.971328366292606,0.00244139400459469,0.971331434459602,0.144010288261916
485,0.966615320335718,0.00353523308708767,0.966621785074546,0.209548750268465
486,0.96310724254194,0.00441465215030241,0.963117360341068,0.262628244891848
487,0.960702638793656,0.00494312393826979,0.960715355690416,0.294802604387026
488,0.959561049917705,0.0052145006213623,0.959575218279368,0.311356882352473
489,0.977256604627117,0.000980181090439859,0.977257096184158,0.0574672205258574
490,0.971323487119172,0.00241034856130244,0.971326477766119,0.142179735254582
491,0.966543842044771,0.00354711688011353,0.966550350800633,0.21026869701909
492,0.963087975058276,0.00438571423439293,0.963097960848841,0.260911967907239
493,0.960722328404409,0.00493984806961825,0.960735028191301,0.294601200794222
494,0.959562622402108,0.00521424203398619,0.959576789335382,0.31134093225017
495,0.985184921020278,-0.00102796608131238,0.985185457322628,-0.0597837982599361
496,0.978099638789853,0.000636341056607204,0.978099845788139,0.037276009809748
497,0.972165905763714,0.00202425423628445,0.972168013223329,0.119301711875797
498,0.967419405252181,0.00313395268370271,0.967424481454706,0.185608881597377
499,0.963848021645712,0.00396658671118258,0.963856183587827,0.235791732210482
500,0.961459059357709,0.00452201690962891,0.961469693468256,0.269476449214677
501,0.960273822549641,0.00479909076651205,0.960285814508517,0.286340573673707
502,0.97722941474337,0.00094195607096819,0.977229868721228,0.0552276567039486
503,0.97128753591308,0.0023309119044381,0.971290332789537,0.137499096018899
504,0.966519097358509,0.00344393275333627,0.96652523310647,0.204157348910265
505,0.962946080830751,0.00427662739089584,0.962955577443292,0.254459822748626
506,0.960572599177987,0.00482934342612549,0.960584739025913,0.288055962735442
507,0.959379571118103,0.00510762190781457,0.959393167205348,0.305032984483782
508,0.9772255988063,0.000942664469412594,0.977226053469019,0.0552694064785351
509,0.971244891416432,0.002338025312517,0.971247705513315,0.137924765659127
510,0.966538959538087,0.00344069237851736,0.966545083619493,0.203961068750023
511,0.962957888667048,0.00427464149617961,0.962967376345648,0.254338544627897
512,0.960520547497723,0.00483795649643423,0.960532731346718,0.288585335715364
513,0.959371607661809,0.00510890009287141,0.959385210667625,0.305111850278115
514,0.985184764100393,-0.00102815209209801,0.985185300596935,-0.0597946256732335
515,0.977975366801965,0.000644183911330099,0.977975578961126,0.0377402287055369
516,0.971924393288744,0.00203969849565815,0.971926533560868,0.120241805350902
517,0.967107408718076,0.003153944805746,0.967112551549833,0.186853170517864
518,0.963503026378331,0.0039887436111964,0.963511282713284,0.237193721926877
519,0.961128630215731,0.00454333775527542,0.961139368530041,0.270840063635945
520,0.959937322918321,0.00482084624467726,0.959949428089891,0.287739433416986
521,0.977095153696193,0.000951499999663535,0.977095616983741,0.055794890342535
522,0.971008932884434,0.00235262642246167,0.97101178293183,0.138819836204338
523,0.96617661329703,0.00346905894477827,0.966182841108287,0.205719719935498
524,0.962568994655605,0.00430409508072809,0.96257861741614,0.256194455240676
525,0.960237358386449,0.00485145817752801,0.960249613948079,0.289476045169708
526,0.959043693930158,0.00512930834044929,0.959057410518918,0.306435378726711
527,0.977100708851142,0.000950561022579135,0.977101171222132,0.0557395129166424
528,0.970968350606901,0.00235936120209782,0.970971217114889,0.139223047884787
529,0.966199621429363,0.00346519988932391,0.966205835244498,0.205485981560753
530,0.962571601720916,0.00430369594719957,0.962581222670781,0.256170003951862
531,0.960226772928745,0.00485323523735701,0.96023903760544,0.289585268964972
532,0.959025128294018,0.00513236291416115,0.959038861490211,0.306623797389078
533,0.985184779275551,-0.00102813374933522,0.985185315752942,-0.0597935579860724
534,0.977987530361741,0.000643533399304442,0.977987742089998,0.037701648834463
535,0.971971256069651,0.00203681930200058,0.971973390200824,0.12006628599546
536,0.967182527466032,0.00314927672264669,0.967187654687267,0.186562124423861
537,0.963554621198024,0.00400586022197363,0.963562948098455,0.238198807503276
538,0.961145770161652,0.0045625782164299,0.961156599425721,0.271982169654355
539,0.959934938884964,0.00484127804269917,0.959947146912353,0.28895963289742
540,0.977087154822512,0.000954319451670272,0.977087620863537,0.0559606778488766
541,0.971036074036804,0.00235298276721399,0.971038924867954,0.138836982029666
542,0.966326449249805,0.00341989934595503,0.966332500866691,0.202773070079069
543,0.962651138517536,0.00431616474589422,0.962660814496582,0.256890951056241
544,0.960226737681736,0.00487531665185039,0.96023911421654,0.290902821942207
545,0.959037525175845,0.00515034303077185,0.959051354583656,0.307693989177323
546,0.977098265399963,0.000952441513644186,0.977098729603336,0.0558499217667849
547,0.97104487032056,0.0023515410019519,0.97104771763336,0.138750654582707
548,0.966276685739783,0.00346020062983476,0.966282881144367,0.205173164025924
549,0.962612741312816,0.00435465414414726,0.962622591024379,0.259192083184903
550,0.960248636788914,0.0048716752583093,0.960260994560744,0.29067892002569
551,0.958996401168139,0.00515714022640822,0.959010267697253,0.308113274110306
552,0.975764427603264,-0.00173548256488613,0.975765970955976,-0.101905458656706
553,0.972144955616941,-0.000846428384260342,0.972145324101533,-0.0498863482684204
554,0.969730416849572,-0.000280682324889515,0.969730457470432,-0.0165838998875934
555,0.968525211902063,2.01059194417693e-06,0.968525211904149,0.000118942110446397
556,0.968525211902063,2.0105919441771e-06,0.968525211904149,0.000118942110446407
557,0.974846061847445,-0.00141892691930713,0.974847094498966,-0.0833962095994062
558,0.971189467318203,-0.000492014786457849,0.971189591948124,-0.0290266413083983
559,0.968825669463016,3.30660500678004e-05,0.968825670027289,0.00195550672637285
560,0.967626936443245,0.000314548094488483,0.967626987568579,0.0186252335011503
561,0.974851740853107,-0.00141996452628824,0.974852775009431,-0.0834567077915105
562,0.971280730436228,-0.000507582978498283,0.971280863065474,-0.0299422801892592
563,0.968802228944963,3.70186622179187e-05,0.968802229652218,0.00218931485075615
564,0.96759690622388,0.000319707831574716,0.967596959041894,0.0189313428371604
565,0.974713626695632,-0.00172486328115617,0.974715152862358,-0.101391096195672
566,0.969914071769434,-0.000595130798806896,0.969914254352946,-0.0351561852158561
567,0.966317151489005,0.00025159685492174,0.966317184242732,0.0149179154875014
568,0.9639323196522,0.000815030646572576,0.963932664217282,0.0484451077550219
569,0.962766464271946,0.00109495850874807,0.962767086922294,0.0651627124253736
570,0.969025564460983,-0.000283836262039802,0.969025606030073,-0.0167824462212291
571,0.965420486429888,0.000563980915410728,0.96542065116352,0.0334711381799797
572,0.963038358319181,0.00112683094012048,0.963039017559554,0.0670405566632378
573,0.961866524867355,0.00140765226491521,0.961867554887522,0.0838499668492906
574,0.96898003861254,-0.000276114168234129,0.968980077952376,-0.0163266274277869
575,0.965376642073361,0.000571473110848013,0.965376811220549,0.0339173252232414
576,0.962978444443266,0.00113691311006948,0.962979115575095,0.0676446009672673
577,0.961900485820546,0.00140196105378121,0.961901507492632,0.0835080091225048
578,0.970537124879154,-0.00275567442818279,0.970541037004747,-0.162681144403076
579,0.965705446601008,-0.00157470191186739,0.965706730473058,-0.0934277567684396
580,0.962096684948435,-0.000680195267793498,0.962096925394926,-0.0405076872270271
581,0.959699633701444,-7.1017252261462e-05,0.959699636329063,-0.00423985659354368
582,0.958490935119415,0.000254633122547804,0.958490968942388,0.0152212215770106
583,0.964795683581048,-0.00125817545763588,0.964796503964491,-0.0747185170612336
584,0.961172229395319,-0.000361453851166584,0.961172297358624,-0.0215463769665732
585,0.958798020749643,0.000243693268754593,0.958798051718839,0.0145626035854843
586,0.957558244063088,0.000606752214118326,0.957558436295892,0.0363051925478576
587,0.964761724524286,-0.00125232408998159,0.964762537323408,-0.0743736435785048
588,0.961184875966793,-0.000363576773256125,0.961184944729873,-0.021672639846824
589,0.958800966252758,0.000243128638083543,0.958800997078516,0.0145288177971067
590,0.957598437552099,0.000600007662283365,0.957598625527113,0.0359001235563244
591,0.96763447807803,-0.00346018518048587,0.967640664733983,-0.204884351100071
592,0.960266715839812,-0.00171681471545141,0.96026825054385,-0.102436261689096
593,0.954081857922132,-0.000238097892136082,0.95408188763164,-0.0142985677108114
594,0.949117493452337,0.000932935393135692,0.949117951966822,0.0563188896405973
595,0.94540187224704,0.00181549467036237,0.945403615430524,0.110027341312326
596,0.942936535900249,0.00240981633757999,0.942939615219523,0.146427675341737
597,0.941683129708014,0.0026770308388256,0.941686934851914,0.162880857331086
598,0.959347754602289,-0.00139765109662664,0.959348772704193,-0.0834728095505402
599,0.953199324262548,0.000106969231243522,0.953199330264659,0.00642980466548922
600,0.948146206653309,0.00126015376251535,0.94814704406994,0.0761501223230051
601,0.944421124315488,0.00214401073271655,0.944423557962927,0.13007179956067
602,0.941992515602528,0.00276478409085582,0.941996572967358,0.168164823155735
603,0.940748768983638,0.00299747000804173,0.94075354433065,0.182558622613238
604,0.959390861536315,-0.00143729417661874,0.95939193816393,-0.0858365781155778
605,0.953118036488441,8.83015388274675e-05,0.953118040578785,0.00530816256870931
606,0.948195510184113,0.00125183827881487,0.948196336542378,0.0756436911650863
607,0.944486918803667,0.00213297743779109,0.944489327300206,0.129393424923727
608,0.942050580776646,0.00275511718159837,0.942054609570114,0.167566518964291
609,0.940713605832317,0.00297044112860027,0.940718295622307,0.180919222659283
610,0.966259464158415,-0.00345099055474947,0.966265626736,-0.204630702786778
611,0.958820065225816,-0.00190400789269114,0.958821955696517,-0.113776793970883
612,0.952601301625728,-0.000624812740046214,0.952601506533551,-0.0375803893988808
613,0.947590627090924,0.000387902142463519,0.947590706486004,0.0234543839400679
614,0.943841320254671,0.00115165297499994,0.943842022864344,0.069910927576946
615,0.941362544407949,0.00166622249159146,0.941364019023246,0.101414080438237
616,0.940145392582466,0.00193241425190157,0.940147378563,0.117767981266696
617,0.957884513384897,-0.00161382551429825,0.957885872855118,-0.0965307425484557
618,0.951663791362361,-0.000334828447857666,0.951663850264511,-0.0201586487850979
619,0.946628188095728,0.000681774211150704,0.946628433607123,0.0412651753000609
620,0.942870972529506,0.00144655511958264,0.942872082183183,0.0879032662705231
621,0.940412991408527,0.00195745163605229,0.940415028605371,0.119259895812601
622,0.939183823865274,0.00222550888950017,0.939186460666899,0.135768978056432
623,0.957902710072555,-0.00158465184676459,0.957904020810969,-0.0947839264237252
624,0.951705179306696,-0.000309279610667022,0.951705229560639,-0.0186196483345521
625,0.946633922455949,0.000680803696454701,0.946634167267382,0.0412061841787757
626,0.942878330050366,0.00144531605740874,0.942879437795242,0.0878272865677555
627,0.940392462712703,0.00196089725052074,0.940394507132454,0.119472431068867
628,0.939259210254735,0.00224582731589072,0.939261895207445,0.136997518991182
629,0.96625918832246,-0.00345058115016264,0.966265349439714,-0.204606485255887
630,0.958904339025022,-0.00166589257890037,0.958905786091157,-0.0995391448157647
631,0.95273968426421,-0.000187473506117615,0.952739702709077,-0.0112742658984757
632,0.947777860664875,0.00100483535527838,0.947778393328619,0.0607450392979978
633,0.944079375225326,0.00190752398168662,0.944081302311184,0.115766669212905
634,0.941610879147224,0.00250240347079709,0.941614204306381,0.152267590730051
635,0.940352314069335,0.00281175648105167,0.940356517789961,0.171320149747241
636,0.957996459512966,-0.00131609074925934,0.957997363531987,-0.0787126060869217
637,0.951816102929053,0.000132199866549122,0.951816112109821,0.00795793886386407
638,0.946837664603608,0.00132696371307534,0.94683859445246,0.0802982109728995
639,0.943105651240174,0.00223492284551592,0.943108299338564,0.135776311718323
640,0.940695646042308,0.0028198122037797,0.940699872341769,0.171748274874485
641,0.939402007223722,0.00316787653390817,0.939407348607456,0.193213625260682
642,0.958012687253713,-0.00135123207795123,0.958013640178056,-0.0808129630225901
643,0.951840912814618,0.000128017521692242,0.951840921423455,0.00770597644387255
644,0.946802305579628,0.00133292435646065,0.94680324383593,0.0806619176262631
645,0.943192018773076,0.0022532937241092,0.943194710338135,0.136879842292068
646,0.940692642181491,0.00282037947610712,0.940696870195061,0.171783374461141
647,0.939397413053447,0.00313573738922296,0.939402646632679,0.191254359731972
648,0.964101759320796,-0.00411881180526487,0.964110557423857,-0.244776129758974
649,0.958106624052982,-0.00264180390647468,0.95811026619178,-0.157982239916498
650,0.953301788445153,-0.00145199660549088,0.953302894229777,-0.0872684957029196
651,0.949695612391644,-0.000549515893053666,0.949695771372947,-0.0331526623085886
652,0.947318293601133,6.39256359993951e-05,0.947318295758004,0.0038663553365703
653,0.946128485911773,0.000370690070069398,0.946128558529354,0.0224482993080551
654,0.957208569734845,-0.00232493990650512,0.957211393224818,-0.139164009312083
655,0.952393206280643,-0.00113365785093239,0.952393880991288,-0.0682005910634854
656,0.948737607713389,-0.00022302197486736,0.948737633926538,-0.0134686530388518
657,0.946433795632972,0.000410418044106436,0.946433884621216,0.0248461333458372
658,0.94524563204181,0.000716844890585532,0.945245903858206,0.0434513289773085
659,0.957201957578039,-0.00232379912652557,0.957204778317373,-0.139096686714561
660,0.952394688547923,-0.00113394420891857,0.952395363598419,-0.0682177121053944
661,0.948791315727198,-0.000232166900081628,0.948791344132532,-0.0140201359680654
662,0.946407491817272,0.00038210260854433,0.946407568952332,0.0231325996574002
663,0.945212487743017,0.000689704723836612,0.945212739375612,0.0418077028023395
664,0.964101501060904,-0.00411899315214607,0.964110299941078,-0.244786972430987
665,0.957953397267669,-0.00259087988157015,0.95795690090694,-0.154961734996116
666,0.952978273158032,-0.00136928268165812,0.952979256881453,-0.0823251346216674
667,0.949211829296891,-0.000435676497692748,0.94921192928195,-0.0262980527922671
668,0.946707884253344,0.000186062831370227,0.94670790253743,0.0112607225542596
669,0.94543931025918,0.000518690141344323,0.945439452541947,0.0314338029632678
670,0.957067563613218,-0.00227611565143767,0.957070270159407,-0.136261617887408
671,0.952068620618418,-0.00105082118105377,0.952069200526628,-0.0632387129929707
672,0.948234208600495,-7.32342875484187e-05,0.94823421142852,-0.00442508353502872
673,0.945733230201139,0.000482374835017601,0.945733353219691,0.0292239279645766
674,0.944495412307067,0.000875163893460987,0.944495817767838,0.0530899170854454
675,0.957066470034672,-0.00224353093596483,0.957069099645208,-0.134311066582437
676,0.952056788924342,-0.00104873100183944,0.952057366535044,-0.0631137098600806
677,0.948278532763825,-0.000113489950293716,0.948278539555062,-0.0068571573786256
678,0.945810133899153,0.00053474058968522,0.945810285064521,0.032393790847266
679,0.944466152160406,0.000880046173464787,0.944466562170387,0.0533877437617283
680,0.963650818899577,-0.00430805024060778,0.963660448530862,-0.256142004456397
681,0.956206357568748,-0.00269012195901757,0.95621014165875,-0.161191385902635
682,0.949994020449033,-0.00132178468541932,0.949994939988458,-0.0797190649619848
683,0.94501485820135,-0.00022299503002847,0.945014884511404,-0.0135200771977275
684,0.941289164098061,0.00062608086036338,0.941289372311018,0.0381092091687106
685,0.938838915088134,0.00122446754960151,0.938839713585149,0.074727178257932
686,0.937636546302528,0.00153256278473287,0.937637798785235,0.0936496146123271
687,0.955272903070388,-0.00239913301166186,0.955275915733111,-0.143895955396929
688,0.949062748378559,-0.00099915743156652,0.949063274326552,-0.060320018719068
689,0.944053174526737,7.17580582269495e-05,0.944053177253924,0.00435508717673793
690,0.940328851784959,0.000920209078237949,0.94032930204475,0.0560698308064418
691,0.937910505198691,0.00157892372879216,0.937911834215885,0.0964543843700724
692,0.936739773045819,0.00188166447139638,0.936741662929068,0.115092035980474
693,0.955266177292771,-0.00239800474364479,0.955269187143757,-0.143829296719622
694,0.949053193431669,-0.00103015036304861,0.949053752520171,-0.062191714115292
695,0.944069783673451,6.89359880991915e-05,0.944069786190305,0.00418373857095508
696,0.94030874715416,0.000923639195616373,0.940309200786629,0.0562800365747307
697,0.937875683473591,0.00151881779374485,0.937876913277295,0.0927860428540388
698,0.936715173821499,0.00185269051529298,0.93671700599999,0.11332282407546
699,0.963650879337847,-0.00430822505291935,0.963660509750042,-0.256152381997806
700,0.956152904958793,-0.00276822245015655,0.956156912183702,-0.165880393374463
701,0.949851845000478,-0.00149596335043099,0.94985302302891,-0.090237562698664
702,0.944779642146006,-0.00049325746221107,0.944779770907728,-0.029913396700667
703,0.940959347584439,0.000259454989818459,0.940959383354789,0.0157984248220989
704,0.938412352335498,0.000761058425412963,0.938412660947075,0.0464672338021693
705,0.937126337725631,0.00101257711204467,0.937126884776796,0.0619088057159075
706,0.955273878452816,-0.00245418256709344,0.955277030952989,-0.14719757030996
707,0.948921647289595,-0.00117324941121359,0.948922372593765,-0.0708406279030028
708,0.943829841697501,-0.000200237647291875,0.943829862938149,-0.0121555511496561
709,0.939987904408392,0.000555907978867572,0.939988068790111,0.0338846671579881
710,0.937458156618027,0.00105444274339558,0.937458749630707,0.0644456427523775
711,0.936150893541128,0.00130938722298659,0.936151809255717,0.0801391241733072
712,0.955215851374463,-0.00247655679978414,0.95521906181285,-0.148548554979061
713,0.948916649151823,-0.00120509226686578,0.948917414364862,-0.0727636760901714
714,0.943825150917469,-0.000199406448313465,0.943825171982245,-0.0121051528611567
715,0.939993460102425,0.000554999904222872,0.939993623946579,0.0338291166871897
716,0.937448183306912,0.00105612652700596,0.937448778221333,0.0645492392069541
717,0.936144771924019,0.00131041898533224,0.936145689088291,0.0802027960478984
718,0.963517779504008,-0.00438329925807505,0.96352774985089,-0.26065197824716
719,0.958669622801347,-0.00328837213853135,0.95867526257508,-0.196531841204866
720,0.955042167216061,-0.00246303462409536,0.955045343269266,-0.147764340390385
721,0.952616614570719,-0.0019261582696991,0.952618561881857,-0.115849952061202
722,0.951394799181295,-0.0016571568734585,0.951396242413286,-0.0997987364448053
723,0.957735091966884,-0.00299698779956685,0.957739781110029,-0.179291949437794
724,0.954109514476833,-0.00217232127165252,0.954111987449548,-0.130451089372542
725,0.951736142483807,-0.00161201829797072,0.951737507673702,-0.0970455492073791
726,0.950482025376925,-0.00133753064190297,0.950482966471699,-0.0806273113210963
727,0.957751430487049,-0.00296740931453584,0.957756027450638,-0.17751942765648
728,0.954154281615538,-0.00211508032811962,0.954156625869179,-0.127007738659407
729,0.951670432914957,-0.00163330578614261,0.951671834495659,-0.0983338696692838
730,0.95045302624267,-0.00136517247689579,0.950454006667204,-0.0822960896370598
